44145551
  -OEChem-04162310433D

 92102  0     1  0  0  0  0  0999 V2000
   -5.3293    4.8210    0.4583 O   0  0  0  0  0  0  0  0  0  0  0  0
    3.2174   -5.0999   -2.1333 O   0  0  0  0  0  0  0  0  0  0  0  0
    5.1834    0.1027    0.7147 N   0  3  1  0  0  0  0  0  0  0  0  0
   -4.8898    0.1256   -0.0266 N   0  3  1  0  0  0  0  0  0  0  0  0
    0.7629    1.5885   -0.4105 N   0  0  0  0  0  0  0  0  0  0  0  0
   -0.5751   -1.7069   -0.1238 N   0  0  0  0  0  0  0  0  0  0  0  0
    3.0030    1.4075    0.6960 C   0  0  1  0  0  0  0  0  0  0  0  0
   -2.8562   -1.1116    0.5954 C   0  0  1  0  0  0  0  0  0  0  0  0
    4.2329    1.0289   -0.2014 C   0  0  2  0  0  0  0  0  0  0  0  0
   -3.9421   -1.0078   -0.5080 C   0  0  2  0  0  0  0  0  0  0  0  0
    1.5752    0.6308    0.3761 C   0  0  2  0  0  0  0  0  0  0  0  0
   -1.4338   -0.5502    0.2145 C   0  0  2  0  0  0  0  0  0  0  0  0
    3.5224    1.2174    2.1277 C   0  0  0  0  0  0  0  0  0  0  0  0
    3.7670    0.2097   -1.3872 C   0  0  0  0  0  0  0  0  0  0  0  0
   -3.4426   -0.4006    1.8274 C   0  0  0  0  0  0  0  0  0  0  0  0
   -2.5731    0.5034   -1.8984 C   0  0  2  0  0  0  0  0  0  0  0  0
   -3.3761   -0.7838   -1.8967 C   0  0  0  0  0  0  0  0  0  0  0  0
    3.1186   -0.9992   -0.7312 C   0  0  3  0  0  0  0  0  0  0  0  0
    4.5055    0.0561    2.1045 C   0  0  0  0  0  0  0  0  0  0  0  0
    1.6971   -0.7441   -0.3634 C   0  0  0  0  0  0  0  0  0  0  0  0
   -1.4124    0.4666   -0.9136 C   0  0  0  0  0  0  0  0  0  0  0  0
   -4.9005   -0.1551    1.4840 C   0  0  0  0  0  0  0  0  0  0  0  0
    2.5913    2.8288    0.4023 C   0  0  0  0  0  0  0  0  0  0  0  0
    5.4042   -1.3995    0.1288 C   0  0  0  0  0  0  0  0  0  0  0  0
   -2.5317   -2.5653    0.8330 C   0  0  0  0  0  0  0  0  0  0  0  0
   -4.3657    1.4592   -0.3648 C   0  0  0  0  0  0  0  0  0  0  0  0
   -3.5393    1.6579   -1.6150 C   0  0  0  0  0  0  0  0  0  0  0  0
    4.1497   -2.0468   -0.4914 C   0  0  0  0  0  0  0  0  0  0  0  0
   -0.4274    1.3726   -1.0691 C   0  0  0  0  0  0  0  0  0  0  0  0
    1.3563    2.8659   -0.2480 C   0  0  0  0  0  0  0  0  0  0  0  0
    0.7489   -1.6848   -0.5011 C   0  0  0  0  0  0  0  0  0  0  0  0
   -1.2505   -2.8568    0.3575 C   0  0  0  0  0  0  0  0  0  0  0  0
    6.5520    0.7628    0.8372 C   0  0  0  0  0  0  0  0  0  0  0  0
   -6.2827   -0.0007   -0.6211 C   0  0  0  0  0  0  0  0  0  0  0  0
    3.3118    3.9962    0.6477 C   0  0  0  0  0  0  0  0  0  0  0  0
   -3.3406   -3.5515    1.3881 C   0  0  0  0  0  0  0  0  0  0  0  0
   -4.7109    2.5435    0.3543 C   0  0  0  0  0  0  0  0  0  0  0  0
    4.0367   -3.3506   -0.7648 C   0  0  0  0  0  0  0  0  0  0  0  0
    0.8266    4.0944   -0.6452 C   0  0  0  0  0  0  0  0  0  0  0  0
   -0.7681   -4.1609    0.4335 C   0  0  0  0  0  0  0  0  0  0  0  0
    2.7782    5.2202    0.2500 C   0  0  0  0  0  0  0  0  0  0  0  0
   -2.8538   -4.8549    1.4653 C   0  0  0  0  0  0  0  0  0  0  0  0
    1.5397    5.2692   -0.3933 C   0  0  0  0  0  0  0  0  0  0  0  0
   -1.5750   -5.1585    0.9880 C   0  0  0  0  0  0  0  0  0  0  0  0
   -4.3247    3.9331   -0.0111 C   0  0  0  0  0  0  0  0  0  0  0  0
    2.8208   -3.9727   -1.3651 C   0  0  0  0  0  0  0  0  0  0  0  0
    4.8353    1.8892   -0.5125 H   0  0  0  0  0  0  0  0  0  0  0  0
   -4.5667   -1.9113   -0.5293 H   0  0  0  0  0  0  0  0  0  0  0  0
    1.0829    0.4632    1.3430 H   0  0  0  0  0  0  0  0  0  0  0  0
   -1.0166   -0.0897    1.1199 H   0  0  0  0  0  0  0  0  0  0  0  0
    2.7172    1.0405    2.8485 H   0  0  0  0  0  0  0  0  0  0  0  0
    4.0608    2.1039    2.4828 H   0  0  0  0  0  0  0  0  0  0  0  0
   -2.9532    0.5661    1.9971 H   0  0  0  0  0  0  0  0  0  0  0  0
   -3.3459   -0.9723    2.7564 H   0  0  0  0  0  0  0  0  0  0  0  0
    4.6121   -0.0475   -2.0400 H   0  0  0  0  0  0  0  0  0  0  0  0
    3.0714    0.7875   -2.0101 H   0  0  0  0  0  0  0  0  0  0  0  0
   -2.1649    0.6374   -2.9100 H   0  0  0  0  0  0  0  0  0  0  0  0
   -4.1828   -0.7350   -2.6383 H   0  0  0  0  0  0  0  0  0  0  0  0
   -2.7441   -1.6310   -2.1904 H   0  0  0  0  0  0  0  0  0  0  0  0
    2.8343   -1.4070   -1.7244 H   0  0  0  0  0  0  0  0  0  0  0  0
    5.2676    0.1042    2.8881 H   0  0  0  0  0  0  0  0  0  0  0  0
    3.9693   -0.8958    2.1734 H   0  0  0  0  0  0  0  0  0  0  0  0
   -5.4889   -1.0693    1.6345 H   0  0  0  0  0  0  0  0  0  0  0  0
   -5.3771    0.6439    2.0541 H   0  0  0  0  0  0  0  0  0  0  0  0
    5.8006   -1.9849    0.9649 H   0  0  0  0  0  0  0  0  0  0  0  0
    6.1711   -1.2901   -0.6461 H   0  0  0  0  0  0  0  0  0  0  0  0
   -4.2314    1.7530   -2.4630 H   0  0  0  0  0  0  0  0  0  0  0  0
   -2.9497    2.5797   -1.5945 H   0  0  0  0  0  0  0  0  0  0  0  0
   -0.5438    2.0920   -1.8765 H   0  0  0  0  0  0  0  0  0  0  0  0
    0.9587   -2.6185   -0.9719 H   0  0  0  0  0  0  0  0  0  0  0  0
    6.4216    1.7497    1.2905 H   0  0  0  0  0  0  0  0  0  0  0  0
    7.1823    0.1286    1.4669 H   0  0  0  0  0  0  0  0  0  0  0  0
    6.9780    0.8535   -0.1659 H   0  0  0  0  0  0  0  0  0  0  0  0
   -6.6606   -1.0062   -0.4123 H   0  0  0  0  0  0  0  0  0  0  0  0
   -6.9355    0.7420   -0.1514 H   0  0  0  0  0  0  0  0  0  0  0  0
   -6.2261    0.1598   -1.7018 H   0  0  0  0  0  0  0  0  0  0  0  0
    4.2844    3.9658    1.1284 H   0  0  0  0  0  0  0  0  0  0  0  0
   -4.3383   -3.3228    1.7475 H   0  0  0  0  0  0  0  0  0  0  0  0
   -5.3445    2.4626    1.2305 H   0  0  0  0  0  0  0  0  0  0  0  0
    4.8653   -4.0093   -0.5156 H   0  0  0  0  0  0  0  0  0  0  0  0
   -0.1377    4.1680   -1.1386 H   0  0  0  0  0  0  0  0  0  0  0  0
    0.2162   -4.4345    0.0850 H   0  0  0  0  0  0  0  0  0  0  0  0
    3.3285    6.1380    0.4354 H   0  0  0  0  0  0  0  0  0  0  0  0
   -3.4711   -5.6397    1.8934 H   0  0  0  0  0  0  0  0  0  0  0  0
    1.1282    6.2269   -0.6999 H   0  0  0  0  0  0  0  0  0  0  0  0
   -1.2046   -6.1780    1.0518 H   0  0  0  0  0  0  0  0  0  0  0  0
   -4.2524    4.1002   -1.0881 H   0  0  0  0  0  0  0  0  0  0  0  0
   -3.3811    4.2022    0.4731 H   0  0  0  0  0  0  0  0  0  0  0  0
    2.3211   -3.3360   -2.0910 H   0  0  0  0  0  0  0  0  0  0  0  0
    2.1719   -4.3419   -0.5745 H   0  0  0  0  0  0  0  0  0  0  0  0
   -5.0397    5.7232    0.2394 H   0  0  0  0  0  0  0  0  0  0  0  0
    2.4070   -5.5131   -2.4774 H   0  0  0  0  0  0  0  0  0  0  0  0
  1 45  1  0  0  0  0
  1 91  1  0  0  0  0
  2 46  1  0  0  0  0
  2 92  1  0  0  0  0
  3  9  1  0  0  0  0
  3 19  1  0  0  0  0
  3 24  1  0  0  0  0
  3 33  1  0  0  0  0
  4 10  1  0  0  0  0
  4 22  1  0  0  0  0
  4 26  1  0  0  0  0
  4 34  1  0  0  0  0
  5 11  1  0  0  0  0
  5 29  1  0  0  0  0
  5 30  1  0  0  0  0
  6 12  1  0  0  0  0
  6 31  1  0  0  0  0
  6 32  1  0  0  0  0
  7  9  1  0  0  0  0
  7 11  1  0  0  0  0
  7 13  1  0  0  0  0
  7 23  1  0  0  0  0
  8 10  1  0  0  0  0
  8 12  1  0  0  0  0
  8 15  1  0  0  0  0
  8 25  1  0  0  0  0
  9 14  1  0  0  0  0
  9 47  1  0  0  0  0
 10 17  1  0  0  0  0
 10 48  1  0  0  0  0
 11 20  1  0  0  0  0
 11 49  1  0  0  0  0
 12 21  1  0  0  0  0
 12 50  1  0  0  0  0
 13 19  1  0  0  0  0
 13 51  1  0  0  0  0
 13 52  1  0  0  0  0
 14 18  1  0  0  0  0
 14 55  1  0  0  0  0
 14 56  1  0  0  0  0
 15 22  1  0  0  0  0
 15 53  1  0  0  0  0
 15 54  1  0  0  0  0
 16 17  1  0  0  0  0
 16 21  1  0  0  0  0
 16 27  1  0  0  0  0
 16 57  1  0  0  0  0
 17 58  1  0  0  0  0
 17 59  1  0  0  0  0
 18 20  1  0  0  0  0
 18 28  1  0  0  0  0
 18 60  1  0  0  0  0
 19 61  1  0  0  0  0
 19 62  1  0  0  0  0
 20 31  2  3  0  0  0
 21 29  2  3  0  0  0
 22 63  1  0  0  0  0
 22 64  1  0  0  0  0
 23 30  1  0  0  0  0
 23 35  2  0  0  0  0
 24 28  1  0  0  0  0
 24 65  1  0  0  0  0
 24 66  1  0  0  0  0
 25 32  1  0  0  0  0
 25 36  2  0  0  0  0
 26 27  1  0  0  0  0
 26 37  2  3  0  0  0
 27 67  1  0  0  0  0
 27 68  1  0  0  0  0
 28 38  2  3  0  0  0
 29 69  1  0  0  0  0
 30 39  2  0  0  0  0
 31 70  1  0  0  0  0
 32 40  2  0  0  0  0
 33 71  1  0  0  0  0
 33 72  1  0  0  0  0
 33 73  1  0  0  0  0
 34 74  1  0  0  0  0
 34 75  1  0  0  0  0
 34 76  1  0  0  0  0
 35 41  1  0  0  0  0
 35 77  1  0  0  0  0
 36 42  1  0  0  0  0
 36 78  1  0  0  0  0
 37 45  1  0  0  0  0
 37 79  1  0  0  0  0
 38 46  1  0  0  0  0
 38 80  1  0  0  0  0
 39 43  1  0  0  0  0
 39 81  1  0  0  0  0
 40 44  1  0  0  0  0
 40 82  1  0  0  0  0
 41 43  2  0  0  0  0
 41 83  1  0  0  0  0
 42 44  2  0  0  0  0
 42 84  1  0  0  0  0
 43 85  1  0  0  0  0
 44 86  1  0  0  0  0
 45 87  1  0  0  0  0
 45 88  1  0  0  0  0
 46 89  1  0  0  0  0
 46 90  1  0  0  0  0
M  CHG  2   3   1   4   1
M  END
> <PUBCHEM_COMPOUND_CID>
44145551

> <PUBCHEM_CONFORMER_RMSD>
1

> <PUBCHEM_CONFORMER_DIVERSEORDER>
1

> <PUBCHEM_MMFF94_PARTIAL_CHARGES>
56
1 -0.68
10 0.5
11 0.51
12 0.51
16 0.14
18 0.28
19 0.5
2 -0.68
20 -0.28
21 -0.28
22 0.5
23 -0.14
24 0.64
25 -0.14
26 0.22
27 0.14
28 -0.28
29 -0.05
3 -1.01
30 0.1
31 -0.05
32 0.1
33 0.5
34 0.5
35 -0.15
36 -0.15
37 -0.29
38 -0.29
39 -0.15
4 -0.87
40 -0.15
41 -0.15
42 -0.15
43 -0.15
44 -0.15
45 0.42
46 0.42
5 -0.57
6 -0.57
69 0.15
7 0.14
70 0.15
77 0.15
78 0.15
79 0.15
8 0.14
80 0.15
81 0.15
82 0.15
83 0.15
84 0.15
85 0.15
86 0.15
9 0.5
91 0.4
92 0.4

> <PUBCHEM_EFFECTIVE_ROTOR_COUNT>
3.6

> <PUBCHEM_PHARMACOPHORE_FEATURES>
18
1 1 acceptor
1 1 donor
1 2 acceptor
1 2 donor
1 3 cation
1 4 cation
1 5 cation
1 6 cation
5 3 7 9 13 19 rings
5 4 8 10 15 22 rings
5 5 7 11 23 30 rings
5 6 8 12 25 32 rings
6 23 30 35 39 41 43 rings
6 25 32 36 40 42 44 rings
6 3 9 14 18 24 28 rings
6 4 10 16 17 26 27 rings
6 7 9 11 14 18 20 rings
6 8 10 12 16 17 21 rings

> <PUBCHEM_HEAVY_ATOM_COUNT>
46

> <PUBCHEM_ATOM_DEF_STEREO_COUNT>
10

> <PUBCHEM_ATOM_UDEF_STEREO_COUNT>
0

> <PUBCHEM_BOND_DEF_STEREO_COUNT>
0

> <PUBCHEM_BOND_UDEF_STEREO_COUNT>
4

> <PUBCHEM_ISOTOPIC_ATOM_COUNT>
0

> <PUBCHEM_COMPONENT_COUNT>
1

> <PUBCHEM_CACTVS_TAUTO_COUNT>
1

> <PUBCHEM_CONFORMER_ID>
02A19B8F00000001

> <PUBCHEM_MMFF94_ENERGY>
252.966

> <PUBCHEM_FEATURE_SELFOVERLAP>
95.047

> <PUBCHEM_SHAPE_FINGERPRINT>
10006869 2 17258491146641712421
10190108 129 17544780931593195913
10290309 65 17257085399065753317
10439779 11 18336818723733029776
11513181 2 17838622506760725958
12107698 1 18272927207546108229
12788726 201 17328027572953379263
13140716 1 18119808259745433774
13726171 33 18189916347450235788
140371 6 18412550903217224056
14415360 78 18261659386483455125
14725015 67 17834390125643993706
15200665 1 18267018539200877307
15320467 1 18337956791525353825
15351339 4 17110448494025183578
15361156 5 18341334508330221390
15444296 121 18408039628594266800
16112460 7 17984430633200126593
20764821 26 18191300481515897212
21033648 144 17972579250508592365
21033648 29 18335702698166899363
21133410 52 15383011144419001495
23559900 14 18339928216110995182
4144715 1 18335706074111765352
508706 21 18335976540955238991
6371380 46 18337671893327365165
9961470 85 18265889340943942693

> <PUBCHEM_SHAPE_MULTIPOLES>
915
12.41
7.65
1.63
0
0.33
0.03
2.75
2.06
-0.16
0.13
-0.02
-0.82
2.95

> <PUBCHEM_SHAPE_SELFOVERLAP>
2068.346

> <PUBCHEM_SHAPE_VOLUME>
476.6

> <PUBCHEM_COORDINATE_TYPE>
2
5
10

$$$$
